<?xml version="1.0" encoding="UTF-8"?>

<!-- generated on 2024-11-02 17:57:16 by Eclipse SUMO netconvert Version v1_21_0+0544-8c77a935d25
<netconvertConfiguration xmlns:xsi="http://www.w3.org/2001/XMLSchema-instance" xsi:noNamespaceSchemaLocation="http://sumo.dlr.de/xsd/netconvertConfiguration.xsd">

    <input>
        <node-files value="womd_map_new/19a486cd29abd7a7/19a486cd29abd7a7.nod.xml"/>
        <edge-files value="womd_map_new/19a486cd29abd7a7/19a486cd29abd7a7.edg.xml"/>
        <connection-files value="womd_map_new/19a486cd29abd7a7/19a486cd29abd7a7.con.xml"/>
        <tllogic-files value="womd_map_new/19a486cd29abd7a7/19a486cd29abd7a7.tll.xml"/>
    </input>

    <output>
        <output-file value="womd_map_new/19a486cd29abd7a7/19a486cd29abd7a7.net.xml"/>
    </output>

    <processing>
        <plain.extend-edge-shape value="false"/>
        <geometry.avoid-overlap value="false"/>
        <geometry.max-grade.fix value="false"/>
        <offset.disable-normalization value="true"/>
        <opposites.guess value="true"/>
        <fringe.guess value="true"/>
    </processing>

    <building_defaults>
        <default.junctions.radius value="20"/>
    </building_defaults>

    <tls_building>
        <tls.layout value="opposites"/>
    </tls_building>

    <junctions>
        <no-turnarounds value="true"/>
        <no-left-connections value="true"/>
        <junctions.join-same value="true"/>
        <junctions.internal-link-detail value="20"/>
        <junctions.limit-turn-speed value="5"/>
        <junctions.limit-turn-speed.warn.turn value="0.1"/>
    </junctions>

    <pedestrian>
        <walkingareas value="true"/>
    </pedestrian>

    <report>
        <ignore-errors value="false"/>
        <ignore-errors.connections value="true"/>
    </report>

</netconvertConfiguration>
-->

<net version="1.20" junctionCornerDetail="5" junctionLinkDetail="20" walkingareas="true" limitTurnSpeed="5.00" avoidOverlap="0" xmlns:xsi="http://www.w3.org/2001/XMLSchema-instance" xsi:noNamespaceSchemaLocation="http://sumo.dlr.de/xsd/net_file.xsd">

    <location netOffset="0.00,0.00" convBoundary="8280.68,7100.72,8492.45,7410.67" origBoundary="8280.68,7100.72,8492.45,7411.33" projParameter="!"/>

    <edge id=":node-0_0" function="internal">
        <lane id=":node-0_0_0" index="0" disallow="pedestrian" speed="7.84" length="14.71" width="3.80" shape="8404.88,7333.29,-14.77 8404.39,7333.28,-14.77 8403.89,7333.28,-14.77 8403.40,7333.29,-14.78 8402.91,7333.30,-14.78 8402.42,7333.31,-14.78 8401.93,7333.34,-14.78 8401.44,7333.37,-14.79 8400.96,7333.43,-14.79 8400.47,7333.50,-14.79 8399.99,7333.59,-14.80 8399.51,7333.71,-14.80 8399.04,7333.85,-14.80 8398.59,7334.03,-14.80 8398.14,7334.23,-14.81 8397.71,7334.47,-14.81 8397.30,7334.74,-14.81 8396.92,7335.04,-14.81 8396.56,7335.38,-14.82 8396.23,7335.74,-14.82 8395.93,7336.13,-14.82 8395.68,7336.55,-14.82 8395.45,7336.99,-14.83 8395.27,7337.44,-14.83 8395.12,7337.91,-14.83 8395.01,7338.39,-14.84 8394.93,7338.87,-14.84 8394.87,7339.36,-14.84 8394.84,7339.85,-14.84 8394.83,7340.34,-14.85 8394.82,7340.83,-14.85"/>
    </edge>
    <edge id=":node-0_1" function="internal">
        <lane id=":node-0_1_0" index="0" disallow="pedestrian" speed="11.24" length="31.69" width="3.80" shape="8405.01,7329.52,-14.73 8404.51,7329.51,-14.73 8404.02,7329.51,-14.74 8403.52,7329.50,-14.74 8403.03,7329.50,-14.74 8402.53,7329.51,-14.75 8402.03,7329.51,-14.75 8401.54,7329.52,-14.75 8401.04,7329.54,-14.76 8400.55,7329.55,-14.76 8400.05,7329.57,-14.76 8399.56,7329.60,-14.77 8399.07,7329.62,-14.77 8398.57,7329.65,-14.78 8398.08,7329.68,-14.78 8397.58,7329.71,-14.78 8397.09,7329.75,-14.79 8396.59,7329.78,-14.79 8396.10,7329.81,-14.79 8395.61,7329.83,-14.80 8395.11,7329.86,-14.80 8394.62,7329.88,-14.80 8394.12,7329.89,-14.81 8393.63,7329.90,-14.81 8393.13,7329.90,-14.82 8392.64,7329.89,-14.82 8392.14,7329.88,-14.82 8391.65,7329.85,-14.83 8391.15,7329.81,-14.83 8390.66,7329.75,-14.83 8390.17,7329.68,-14.84 8389.68,7329.60,-14.84 8389.20,7329.49,-14.84 8388.72,7329.38,-14.85 8388.24,7329.24,-14.85 8387.77,7329.08,-14.85 8387.31,7328.90,-14.86 8386.86,7328.70,-14.86 8386.41,7328.49,-14.87 8385.98,7328.25,-14.87 8385.56,7327.99,-14.87 8385.15,7327.70,-14.88 8384.76,7327.40,-14.88 8384.38,7327.08,-14.88 8384.03,7326.73,-14.89 8383.69,7326.37,-14.89 8383.37,7325.99,-14.89 8383.07,7325.60,-14.90 8382.80,7325.19,-14.90 8382.55,7324.76,-14.90 8382.32,7324.32,-14.91 8382.11,7323.87,-14.91 8381.93,7323.41,-14.92 8381.77,7322.94,-14.92 8381.63,7322.46,-14.92 8381.52,7321.98,-14.93 8381.42,7321.50,-14.93 8381.34,7321.01,-14.93 8381.29,7320.52,-14.94 8381.24,7320.02,-14.94 8381.21,7319.53,-14.94 8381.20,7319.03,-14.95 8381.19,7318.54,-14.95 8381.19,7318.04,-14.96 8381.19,7317.55,-14.96"/>
        <lane id=":node-0_1_1" index="1" disallow="pedestrian" speed="10.57" length="27.91" width="3.80" shape="8405.01,7329.52,-14.73 8404.51,7329.51,-14.73 8404.01,7329.51,-14.73 8403.51,7329.50,-14.74 8403.01,7329.50,-14.74 8402.51,7329.50,-14.74 8402.02,7329.50,-14.75 8401.52,7329.51,-14.75 8401.02,7329.51,-14.75 8400.52,7329.52,-14.75 8400.02,7329.52,-14.76 8399.52,7329.53,-14.76 8399.03,7329.54,-14.76 8398.53,7329.54,-14.77 8398.03,7329.54,-14.77 8397.53,7329.54,-14.77 8397.03,7329.53,-14.77 8396.53,7329.52,-14.78 8396.04,7329.50,-14.78 8395.54,7329.47,-14.78 8395.04,7329.43,-14.79 8394.55,7329.39,-14.79 8394.05,7329.32,-14.79 8393.56,7329.25,-14.79 8393.07,7329.16,-14.80 8392.58,7329.06,-14.80 8392.10,7328.94,-14.80 8391.62,7328.80,-14.81 8391.15,7328.64,-14.81 8390.68,7328.47,-14.81 8390.22,7328.27,-14.81 8389.77,7328.05,-14.82 8389.34,7327.81,-14.82 8388.91,7327.55,-14.82 8388.50,7327.27,-14.83 8388.11,7326.97,-14.83 8387.73,7326.64,-14.83 8387.37,7326.30,-14.83 8387.03,7325.93,-14.84 8386.71,7325.55,-14.84 8386.42,7325.15,-14.84 8386.14,7324.73,-14.85 8385.90,7324.30,-14.85 8385.67,7323.85,-14.85 8385.47,7323.40,-14.85 8385.30,7322.93,-14.86 8385.15,7322.46,-14.86 8385.02,7321.97,-14.86 8384.91,7321.49,-14.87 8384.83,7321.00,-14.87 8384.76,7320.50,-14.87 8384.72,7320.01,-14.87 8384.69,7319.51,-14.88 8384.67,7319.01,-14.88 8384.66,7318.51,-14.88 8384.66,7318.01,-14.89 8384.66,7317.51,-14.89"/>
    </edge>
    <edge id=":node-0_3" function="internal">
        <lane id=":node-0_3_0" index="0" disallow="pedestrian" speed="7.82" length="14.64" width="4.00" shape="8394.98,7316.26,-14.87 8394.98,7316.75,-14.87 8394.98,7317.24,-14.86 8394.99,7317.73,-14.86 8395.01,7318.21,-14.86 8395.04,7318.70,-14.86 8395.10,7319.19,-14.85 8395.17,7319.67,-14.85 8395.26,7320.15,-14.85 8395.39,7320.62,-14.85 8395.54,7321.09,-14.85 8395.71,7321.54,-14.84 8395.92,7321.98,-14.84 8396.16,7322.41,-14.84 8396.43,7322.81,-14.84 8396.73,7323.20,-14.83 8397.06,7323.56,-14.83 8397.42,7323.89,-14.83 8397.80,7324.19,-14.83 8398.21,7324.46,-14.82 8398.63,7324.70,-14.82 8399.08,7324.91,-14.82 8399.53,7325.09,-14.82 8400.00,7325.23,-14.82 8400.47,7325.35,-14.81 8400.95,7325.43,-14.81 8401.44,7325.50,-14.81 8401.92,7325.54,-14.81 8402.41,7325.57,-14.80 8402.90,7325.58,-14.80 8403.39,7325.59,-14.80"/>
    </edge>
    <edge id=":node-0_4" function="internal">
        <lane id=":node-0_4_0" index="0" disallow="pedestrian" speed="20.12" length="24.56" width="3.80" shape="8394.98,7316.26,-14.87 8394.98,7316.75,-14.87 8394.98,7317.24,-14.87 8394.97,7317.74,-14.87 8394.97,7318.23,-14.87 8394.97,7318.72,-14.87 8394.96,7319.21,-14.87 8394.96,7319.70,-14.87 8394.96,7320.19,-14.87 8394.95,7320.68,-14.87 8394.95,7321.17,-14.86 8394.95,7321.67,-14.86 8394.95,7322.16,-14.86 8394.94,7322.65,-14.86 8394.94,7323.14,-14.86 8394.94,7323.63,-14.86 8394.94,7324.12,-14.86 8394.93,7324.61,-14.86 8394.93,7325.11,-14.86 8394.93,7325.60,-14.86 8394.92,7326.09,-14.86 8394.92,7326.58,-14.86 8394.92,7327.07,-14.86 8394.92,7327.56,-14.86 8394.91,7328.05,-14.86 8394.91,7328.55,-14.86 8394.91,7329.04,-14.86 8394.91,7329.53,-14.86 8394.90,7330.02,-14.86 8394.90,7330.51,-14.86 8394.90,7331.00,-14.86 8394.89,7331.49,-14.86 8394.89,7331.98,-14.86 8394.89,7332.48,-14.86 8394.88,7332.97,-14.86 8394.88,7333.46,-14.85 8394.88,7333.95,-14.85 8394.87,7334.44,-14.85 8394.87,7334.93,-14.85 8394.87,7335.42,-14.85 8394.86,7335.92,-14.85 8394.86,7336.41,-14.85 8394.86,7336.90,-14.85 8394.85,7337.39,-14.85 8394.85,7337.88,-14.85 8394.84,7338.37,-14.85 8394.84,7338.86,-14.85 8394.84,7339.35,-14.85 8394.83,7339.85,-14.85 8394.83,7340.34,-14.85 8394.82,7340.83,-14.85"/>
        <lane id=":node-0_4_1" index="1" disallow="pedestrian" speed="20.12" length="24.56" width="3.80" shape="8391.67,7316.20,-14.85 8391.67,7316.69,-14.85 8391.66,7317.18,-14.85 8391.66,7317.67,-14.85 8391.66,7318.16,-14.85 8391.66,7318.65,-14.85 8391.65,7319.14,-14.85 8391.65,7319.63,-14.85 8391.65,7320.12,-14.85 8391.65,7320.62,-14.85 8391.64,7321.11,-14.84 8391.64,7321.60,-14.84 8391.64,7322.09,-14.84 8391.64,7322.58,-14.84 8391.64,7323.07,-14.84 8391.63,7323.56,-14.84 8391.63,7324.05,-14.84 8391.63,7324.54,-14.84 8391.63,7325.04,-14.84 8391.63,7325.53,-14.84 8391.62,7326.02,-14.84 8391.62,7326.51,-14.84 8391.62,7327.00,-14.84 8391.62,7327.49,-14.84 8391.61,7327.98,-14.84 8391.61,7328.47,-14.84 8391.61,7328.96,-14.84 8391.61,7329.46,-14.84 8391.61,7329.95,-14.84 8391.60,7330.44,-14.84 8391.60,7330.93,-14.84 8391.60,7331.42,-14.84 8391.59,7331.91,-14.84 8391.59,7332.40,-14.84 8391.59,7332.89,-14.84 8391.59,7333.38,-14.83 8391.58,7333.88,-14.83 8391.58,7334.37,-14.83 8391.58,7334.86,-14.83 8391.57,7335.35,-14.83 8391.57,7335.84,-14.83 8391.57,7336.33,-14.83 8391.56,7336.82,-14.83 8391.56,7337.31,-14.83 8391.56,7337.80,-14.83 8391.55,7338.30,-14.83 8391.55,7338.79,-14.83 8391.54,7339.28,-14.83 8391.54,7339.77,-14.83 8391.53,7340.26,-14.83 8391.53,7340.75,-14.83"/>
    </edge>
    <edge id=":node-0_6" function="internal">
        <lane id=":node-0_6_0" index="0" disallow="pedestrian" speed="20.12" length="24.78" width="3.80" shape="8381.10,7342.34,-14.92 8381.11,7341.84,-14.92 8381.11,7341.35,-14.92 8381.12,7340.85,-14.92 8381.12,7340.35,-14.92 8381.12,7339.86,-14.92 8381.13,7339.36,-14.92 8381.13,7338.87,-14.92 8381.13,7338.37,-14.93 8381.14,7337.87,-14.93 8381.14,7337.38,-14.93 8381.14,7336.88,-14.93 8381.14,7336.39,-14.93 8381.15,7335.89,-14.93 8381.15,7335.40,-14.93 8381.15,7334.90,-14.93 8381.15,7334.40,-14.93 8381.15,7333.91,-14.93 8381.16,7333.41,-14.93 8381.16,7332.92,-14.93 8381.16,7332.42,-14.93 8381.16,7331.93,-14.94 8381.16,7331.43,-14.94 8381.16,7330.93,-14.94 8381.16,7330.44,-14.94 8381.16,7329.94,-14.94 8381.16,7329.45,-14.94 8381.17,7328.95,-14.94 8381.17,7328.46,-14.94 8381.17,7327.96,-14.94 8381.17,7327.46,-14.94 8381.17,7326.97,-14.94 8381.17,7326.47,-14.94 8381.17,7325.98,-14.95 8381.17,7325.48,-14.95 8381.17,7324.98,-14.95 8381.17,7324.49,-14.95 8381.17,7323.99,-14.95 8381.17,7323.50,-14.95 8381.17,7323.00,-14.95 8381.18,7322.51,-14.95 8381.18,7322.01,-14.95 8381.18,7321.51,-14.95 8381.18,7321.02,-14.95 8381.18,7320.52,-14.95 8381.18,7320.03,-14.95 8381.18,7319.53,-14.96 8381.18,7319.04,-14.96 8381.18,7318.54,-14.96 8381.19,7318.04,-14.96 8381.19,7317.55,-14.96"/>
        <lane id=":node-0_6_1" index="1" disallow="pedestrian" speed="20.12" length="24.78" width="3.80" shape="8384.55,7342.29,-14.85 8384.55,7341.80,-14.85 8384.55,7341.30,-14.85 8384.56,7340.81,-14.85 8384.56,7340.31,-14.85 8384.56,7339.81,-14.85 8384.56,7339.32,-14.85 8384.57,7338.82,-14.85 8384.57,7338.33,-14.86 8384.57,7337.83,-14.86 8384.57,7337.34,-14.86 8384.58,7336.84,-14.86 8384.58,7336.35,-14.86 8384.58,7335.85,-14.86 8384.58,7335.35,-14.86 8384.58,7334.86,-14.86 8384.59,7334.36,-14.86 8384.59,7333.87,-14.86 8384.59,7333.37,-14.86 8384.59,7332.88,-14.86 8384.59,7332.38,-14.86 8384.60,7331.89,-14.87 8384.60,7331.39,-14.87 8384.60,7330.89,-14.87 8384.60,7330.40,-14.87 8384.60,7329.90,-14.87 8384.61,7329.41,-14.87 8384.61,7328.91,-14.87 8384.61,7328.42,-14.87 8384.61,7327.92,-14.87 8384.61,7327.43,-14.87 8384.62,7326.93,-14.87 8384.62,7326.43,-14.87 8384.62,7325.94,-14.88 8384.62,7325.44,-14.88 8384.62,7324.95,-14.88 8384.63,7324.45,-14.88 8384.63,7323.96,-14.88 8384.63,7323.46,-14.88 8384.63,7322.97,-14.88 8384.63,7322.47,-14.88 8384.64,7321.97,-14.88 8384.64,7321.48,-14.88 8384.64,7320.98,-14.88 8384.64,7320.49,-14.88 8384.65,7319.99,-14.88 8384.65,7319.50,-14.89 8384.65,7319.00,-14.89 8384.65,7318.51,-14.89 8384.66,7318.01,-14.89 8384.66,7317.51,-14.89"/>
    </edge>
    <edge id=":node-0_8" function="internal">
        <lane id=":node-0_8_0" index="0" disallow="pedestrian" speed="10.30" length="26.67" width="4.00" shape="8388.07,7342.45,-14.83 8388.07,7341.95,-14.83 8388.08,7341.46,-14.83 8388.08,7340.97,-14.83 8388.09,7340.47,-14.83 8388.11,7339.98,-14.83 8388.13,7339.48,-14.83 8388.15,7338.99,-14.82 8388.19,7338.50,-14.82 8388.23,7338.01,-14.82 8388.28,7337.51,-14.82 8388.34,7337.02,-14.82 8388.41,7336.54,-14.82 8388.50,7336.05,-14.82 8388.59,7335.56,-14.82 8388.70,7335.08,-14.82 8388.83,7334.60,-14.82 8388.97,7334.13,-14.82 8389.12,7333.66,-14.82 8389.29,7333.20,-14.82 8389.48,7332.74,-14.82 8389.68,7332.29,-14.82 8389.90,7331.85,-14.82 8390.14,7331.42,-14.82 8390.40,7330.99,-14.82 8390.67,7330.58,-14.81 8390.96,7330.18,-14.81 8391.27,7329.80,-14.81 8391.59,7329.42,-14.81 8391.93,7329.07,-14.81 8392.29,7328.72,-14.81 8392.66,7328.40,-14.81 8393.05,7328.09,-14.81 8393.45,7327.80,-14.81 8393.86,7327.52,-14.81 8394.28,7327.27,-14.81 8394.71,7327.03,-14.81 8395.16,7326.82,-14.81 8395.61,7326.62,-14.81 8396.07,7326.44,-14.81 8396.54,7326.28,-14.81 8397.01,7326.14,-14.81 8397.49,7326.02,-14.81 8397.97,7325.91,-14.80 8398.46,7325.82,-14.80 8398.95,7325.75,-14.80 8399.44,7325.69,-14.80 8399.93,7325.65,-14.80 8400.42,7325.61,-14.80 8400.92,7325.59,-14.80 8401.41,7325.58,-14.80 8401.90,7325.58,-14.80 8402.40,7325.58,-14.80 8402.89,7325.58,-14.80 8403.39,7325.59,-14.80"/>
    </edge>
    <edge id=":node-1_0" function="internal">
        <lane id=":node-1_0_0" index="0" disallow="pedestrian" speed="7.62" length="13.86" width="4.00" shape="8382.08,7197.85,-14.36 8382.09,7197.36,-14.36 8382.09,7196.86,-14.35 8382.10,7196.37,-14.35 8382.12,7195.87,-14.34 8382.15,7195.38,-14.34 8382.17,7194.88,-14.34 8382.20,7194.39,-14.33 8382.22,7193.90,-14.33 8382.24,7193.40,-14.32 8382.24,7192.91,-14.32 8382.22,7192.41,-14.32 8382.17,7191.92,-14.31 8382.10,7191.43,-14.31 8381.99,7190.94,-14.31 8381.84,7190.47,-14.32 8381.65,7190.02,-14.32 8381.41,7189.58,-14.32 8381.13,7189.18,-14.33 8380.80,7188.81,-14.33 8380.43,7188.48,-14.33 8380.03,7188.20,-14.34 8379.59,7187.96,-14.34 8379.13,7187.78,-14.34 8378.65,7187.65,-14.35 8378.17,7187.56,-14.35 8377.67,7187.51,-14.35 8377.18,7187.48,-14.36 8376.68,7187.47,-14.36"/>
    </edge>
    <edge id=":node-1_1" function="internal">
        <lane id=":node-1_1_0" index="0" disallow="pedestrian" speed="20.12" length="22.28" width="3.80" shape="8382.08,7197.85,-14.36 8382.08,7197.36,-14.36 8382.09,7196.87,-14.35 8382.09,7196.38,-14.35 8382.09,7195.89,-14.35 8382.10,7195.40,-14.34 8382.10,7194.91,-14.34 8382.10,7194.42,-14.34 8382.11,7193.93,-14.34 8382.11,7193.44,-14.33 8382.11,7192.95,-14.33 8382.11,7192.46,-14.33 8382.12,7191.97,-14.32 8382.12,7191.47,-14.32 8382.12,7190.98,-14.32 8382.13,7190.49,-14.32 8382.13,7190.00,-14.31 8382.13,7189.51,-14.31 8382.14,7189.02,-14.31 8382.14,7188.53,-14.31 8382.14,7188.04,-14.30 8382.15,7187.55,-14.30 8382.15,7187.06,-14.30 8382.15,7186.57,-14.29 8382.16,7186.08,-14.29 8382.16,7185.59,-14.29 8382.17,7185.10,-14.29 8382.17,7184.61,-14.28 8382.17,7184.11,-14.28 8382.18,7183.62,-14.28 8382.18,7183.13,-14.27 8382.19,7182.64,-14.27 8382.19,7182.15,-14.27 8382.20,7181.66,-14.27 8382.20,7181.17,-14.26 8382.21,7180.68,-14.26 8382.21,7180.19,-14.26 8382.22,7179.70,-14.25 8382.22,7179.21,-14.25 8382.23,7178.72,-14.25 8382.23,7178.23,-14.25 8382.24,7177.74,-14.24 8382.24,7177.25,-14.24 8382.25,7176.75,-14.24 8382.26,7176.26,-14.23 8382.26,7175.77,-14.23 8382.27,7175.28,-14.23"/>
        <lane id=":node-1_1_1" index="1" disallow="pedestrian" speed="20.12" length="22.28" width="3.80" shape="8385.67,7197.78,-14.29 8385.68,7197.28,-14.29 8385.68,7196.78,-14.28 8385.69,7196.28,-14.28 8385.69,7195.78,-14.28 8385.70,7195.28,-14.27 8385.70,7194.78,-14.27 8385.71,7194.28,-14.27 8385.71,7193.78,-14.27 8385.72,7193.28,-14.26 8385.72,7192.78,-14.26 8385.73,7192.28,-14.26 8385.73,7191.78,-14.25 8385.74,7191.28,-14.25 8385.74,7190.78,-14.25 8385.75,7190.28,-14.24 8385.75,7189.78,-14.24 8385.76,7189.28,-14.24 8385.76,7188.78,-14.24 8385.77,7188.28,-14.23 8385.77,7187.78,-14.23 8385.78,7187.28,-14.23 8385.79,7186.78,-14.22 8385.79,7186.28,-14.22 8385.80,7185.78,-14.22 8385.80,7185.28,-14.22 8385.81,7184.78,-14.21 8385.81,7184.28,-14.21 8385.82,7183.78,-14.21 8385.82,7183.28,-14.20 8385.83,7182.78,-14.20 8385.84,7182.28,-14.20 8385.84,7181.78,-14.19 8385.85,7181.28,-14.19 8385.85,7180.78,-14.19 8385.86,7180.28,-14.19 8385.86,7179.78,-14.18 8385.87,7179.28,-14.18 8385.87,7178.78,-14.18 8385.88,7178.28,-14.17 8385.88,7177.78,-14.17 8385.89,7177.28,-14.17 8385.90,7176.78,-14.16 8385.90,7176.28,-14.16 8385.91,7175.78,-14.16"/>
    </edge>
    <edge id=":node-1_3" function="internal">
        <lane id=":node-1_3_0" index="0" disallow="pedestrian" speed="20.12" length="20.95" width="3.80" shape="8395.66,7177.49,-14.21 8395.66,7177.98,-14.21 8395.66,7178.48,-14.21 8395.65,7178.97,-14.22 8395.65,7179.47,-14.22 8395.65,7179.96,-14.22 8395.65,7180.46,-14.23 8395.65,7180.95,-14.23 8395.65,7181.44,-14.23 8395.66,7181.94,-14.24 8395.66,7182.43,-14.24 8395.66,7182.93,-14.24 8395.66,7183.42,-14.24 8395.67,7183.92,-14.25 8395.67,7184.41,-14.25 8395.67,7184.90,-14.25 8395.68,7185.40,-14.26 8395.68,7185.89,-14.26 8395.69,7186.39,-14.26 8395.69,7186.88,-14.26 8395.70,7187.37,-14.27 8395.70,7187.87,-14.27 8395.71,7188.36,-14.27 8395.71,7188.86,-14.28 8395.72,7189.35,-14.28 8395.72,7189.85,-14.28 8395.73,7190.34,-14.28 8395.74,7190.83,-14.29 8395.74,7191.33,-14.29 8395.75,7191.82,-14.29 8395.75,7192.32,-14.30 8395.76,7192.81,-14.30 8395.76,7193.31,-14.30 8395.77,7193.80,-14.31 8395.77,7194.29,-14.31 8395.78,7194.79,-14.31 8395.78,7195.28,-14.31 8395.79,7195.78,-14.32 8395.79,7196.27,-14.32 8395.79,7196.76,-14.32 8395.80,7197.26,-14.33 8395.80,7197.75,-14.33"/>
        <lane id=":node-1_3_1" index="1" disallow="pedestrian" speed="20.12" length="20.95" width="3.80" shape="8392.54,7176.09,-14.16 8392.54,7176.58,-14.16 8392.54,7177.08,-14.16 8392.54,7177.57,-14.17 8392.53,7178.06,-14.17 8392.53,7178.55,-14.17 8392.53,7179.04,-14.18 8392.53,7179.53,-14.18 8392.52,7180.03,-14.18 8392.52,7180.52,-14.19 8392.52,7181.01,-14.19 8392.52,7181.50,-14.19 8392.52,7181.99,-14.19 8392.51,7182.49,-14.20 8392.51,7182.98,-14.20 8392.51,7183.47,-14.20 8392.51,7183.96,-14.21 8392.51,7184.45,-14.21 8392.51,7184.94,-14.21 8392.50,7185.44,-14.22 8392.50,7185.93,-14.22 8392.50,7186.42,-14.22 8392.50,7186.91,-14.22 8392.50,7187.40,-14.23 8392.49,7187.90,-14.23 8392.49,7188.39,-14.23 8392.49,7188.88,-14.24 8392.49,7189.37,-14.24 8392.49,7189.86,-14.24 8392.49,7190.35,-14.24 8392.48,7190.85,-14.25 8392.48,7191.34,-14.25 8392.48,7191.83,-14.25 8392.48,7192.32,-14.26 8392.48,7192.81,-14.26 8392.48,7193.31,-14.26 8392.47,7193.80,-14.27 8392.47,7194.29,-14.27 8392.47,7194.78,-14.27 8392.47,7195.27,-14.27 8392.47,7195.76,-14.28 8392.47,7196.26,-14.28 8392.46,7196.75,-14.28 8392.46,7197.24,-14.29 8392.46,7197.73,-14.29"/>
    </edge>
    <edge id=":node-1_5" function="internal">
        <lane id=":node-1_5_0" index="0" disallow="pedestrian" speed="9.13" length="5.91" width="4.00" shape="8389.40,7175.19,-14.14 8389.39,7175.69,-14.14 8389.39,7176.18,-14.15 8389.37,7176.67,-14.15 8389.35,7177.16,-14.15 8389.32,7177.65,-14.16 8389.28,7178.15,-14.16 8389.23,7178.63,-14.16 8389.16,7179.12,-14.17 8389.07,7179.61,-14.17 8388.96,7180.09,-14.17 8388.84,7180.56,-14.18 8388.69,7181.03,-14.18"/>
    </edge>
    <edge id=":node-1_9" function="internal">
        <lane id=":node-1_9_0" index="0" disallow="pedestrian" speed="9.13" length="14.78" width="4.00" shape="8388.69,7181.03,-14.18 8388.52,7181.50,-14.18 8388.33,7181.95,-14.19 8388.11,7182.39,-14.19 8387.87,7182.82,-14.19 8387.61,7183.24,-14.20 8387.33,7183.64,-14.20 8387.03,7184.03,-14.20 8386.70,7184.40,-14.21 8386.36,7184.75,-14.21 8385.99,7185.08,-14.22 8385.61,7185.39,-14.22 8385.21,7185.68,-14.22 8384.79,7185.94,-14.23 8384.36,7186.19,-14.23 8383.92,7186.41,-14.24 8383.47,7186.60,-14.26 8383.01,7186.78,-14.27 8382.54,7186.93,-14.28 8382.07,7187.06,-14.30 8381.59,7187.17,-14.31 8381.10,7187.26,-14.32 8380.62,7187.33,-14.34 8380.13,7187.39,-14.35 8379.64,7187.43,-14.36 8379.15,7187.46,-14.38 8378.65,7187.48,-14.39 8378.16,7187.48,-14.38 8377.67,7187.48,-14.37 8377.18,7187.48,-14.37 8376.68,7187.47,-14.36"/>
    </edge>
    <edge id=":node-1_6" function="internal">
        <lane id=":node-1_6_0" index="0" disallow="pedestrian" speed="7.32" length="12.69" width="3.80" shape="8376.77,7184.51,-14.36 8377.26,7184.51,-14.35 8377.74,7184.50,-14.35 8378.23,7184.46,-14.34 8378.71,7184.37,-14.34 8379.18,7184.25,-14.33 8379.64,7184.07,-14.33 8380.07,7183.84,-14.32 8380.47,7183.56,-14.32 8380.83,7183.24,-14.31 8381.15,7182.87,-14.31 8381.43,7182.47,-14.30 8381.66,7182.04,-14.30 8381.85,7181.59,-14.29 8381.99,7181.12,-14.29 8382.10,7180.64,-14.28 8382.18,7180.16,-14.28 8382.23,7179.68,-14.27 8382.26,7179.19,-14.27 8382.27,7178.70,-14.26 8382.27,7178.21,-14.26 8382.27,7177.72,-14.25 8382.26,7177.24,-14.25 8382.26,7176.75,-14.24 8382.26,7176.26,-14.24 8382.26,7175.77,-14.23 8382.27,7175.28,-14.23"/>
    </edge>
    <edge id=":node-1_7" function="internal">
        <lane id=":node-1_7_0" index="0" disallow="pedestrian" speed="10.48" length="27.15" width="3.80" shape="8376.77,7184.51,-14.36 8377.26,7184.51,-14.35 8377.75,7184.52,-14.35 8378.25,7184.52,-14.34 8378.74,7184.53,-14.33 8379.24,7184.53,-14.33 8379.73,7184.54,-14.32 8380.22,7184.55,-14.32 8380.72,7184.56,-14.31 8381.21,7184.57,-14.30 8381.70,7184.58,-14.30 8382.20,7184.60,-14.29 8382.69,7184.63,-14.28 8383.18,7184.66,-14.28 8383.67,7184.69,-14.27 8384.17,7184.74,-14.27 8384.66,7184.79,-14.26 8385.15,7184.85,-14.25 8385.63,7184.93,-14.25 8386.12,7185.01,-14.24 8386.60,7185.11,-14.23 8387.08,7185.22,-14.23 8387.56,7185.34,-14.22 8388.04,7185.48,-14.22 8388.50,7185.64,-14.21 8388.97,7185.81,-14.21 8389.42,7186.00,-14.22 8389.87,7186.21,-14.22 8390.31,7186.44,-14.22 8390.74,7186.68,-14.23 8391.15,7186.95,-14.23 8391.56,7187.23,-14.24 8391.95,7187.53,-14.24 8392.32,7187.85,-14.24 8392.68,7188.19,-14.25 8393.03,7188.55,-14.25 8393.35,7188.92,-14.26 8393.65,7189.31,-14.26 8393.94,7189.71,-14.26 8394.20,7190.13,-14.27 8394.44,7190.56,-14.27 8394.66,7191.00,-14.27 8394.86,7191.45,-14.28 8395.04,7191.91,-14.28 8395.20,7192.38,-14.29 8395.33,7192.85,-14.29 8395.44,7193.33,-14.29 8395.54,7193.82,-14.30 8395.62,7194.31,-14.30 8395.68,7194.80,-14.31 8395.72,7195.29,-14.31 8395.76,7195.78,-14.31 8395.78,7196.27,-14.32 8395.79,7196.77,-14.32 8395.80,7197.26,-14.32 8395.80,7197.75,-14.33"/>
        <lane id=":node-1_7_1" index="1" disallow="pedestrian" speed="9.85" length="23.99" width="3.80" shape="8376.77,7184.51,-14.36 8377.27,7184.52,-14.35 8377.77,7184.52,-14.34 8378.27,7184.53,-14.34 8378.77,7184.54,-14.33 8379.27,7184.55,-14.32 8379.76,7184.57,-14.31 8380.26,7184.60,-14.30 8380.76,7184.63,-14.30 8381.26,7184.67,-14.29 8381.76,7184.73,-14.28 8382.25,7184.79,-14.27 8382.75,7184.86,-14.27 8383.24,7184.95,-14.26 8383.73,7185.06,-14.25 8384.21,7185.17,-14.24 8384.70,7185.31,-14.23 8385.17,7185.46,-14.23 8385.64,7185.63,-14.22 8386.11,7185.81,-14.22 8386.56,7186.02,-14.22 8387.01,7186.25,-14.23 8387.44,7186.49,-14.23 8387.86,7186.76,-14.23 8388.27,7187.04,-14.23 8388.67,7187.35,-14.24 8389.05,7187.67,-14.24 8389.41,7188.02,-14.24 8389.76,7188.38,-14.24 8390.08,7188.76,-14.24 8390.39,7189.15,-14.25 8390.67,7189.56,-14.25 8390.94,7189.99,-14.25 8391.18,7190.43,-14.25 8391.40,7190.88,-14.26 8391.59,7191.34,-14.26 8391.76,7191.81,-14.26 8391.92,7192.28,-14.26 8392.05,7192.76,-14.27 8392.15,7193.25,-14.27 8392.24,7193.74,-14.27 8392.32,7194.24,-14.27 8392.37,7194.74,-14.27 8392.41,7195.23,-14.28 8392.44,7195.73,-14.28 8392.45,7196.23,-14.28 8392.46,7196.73,-14.28 8392.46,7197.23,-14.29 8392.46,7197.73,-14.29"/>
    </edge>
    <edge id=":node-2_0" function="internal">
        <lane id=":node-2_0_0" index="0" disallow="pedestrian" speed="7.59" length="13.60" width="4.00" shape="8462.56,7332.59,-14.53 8462.08,7332.58,-14.53 8461.59,7332.58,-14.53 8461.11,7332.58,-14.54 8460.62,7332.58,-14.54 8460.13,7332.58,-14.54 8459.65,7332.59,-14.54 8459.16,7332.61,-14.55 8458.68,7332.64,-14.55 8458.19,7332.68,-14.55 8457.71,7332.75,-14.56 8457.24,7332.84,-14.56 8456.77,7332.96,-14.56 8456.30,7333.11,-14.56 8455.85,7333.30,-14.57 8455.42,7333.52,-14.57 8455.01,7333.78,-14.58 8454.63,7334.07,-14.59 8454.27,7334.41,-14.61 8453.96,7334.77,-14.62 8453.68,7335.17,-14.63 8453.44,7335.60,-14.64 8453.25,7336.04,-14.66 8453.10,7336.50,-14.67 8452.99,7336.98,-14.66 8452.91,7337.46,-14.65 8452.87,7337.94,-14.64 8452.84,7338.42,-14.64 8452.83,7338.91,-14.63"/>
    </edge>
    <edge id=":node-2_1" function="internal">
        <lane id=":node-2_1_0" index="0" disallow="pedestrian" speed="11.18" length="18.00" width="4.00" shape="8462.56,7332.59,-14.53 8462.06,7332.58,-14.53 8461.56,7332.58,-14.53 8461.06,7332.58,-14.53 8460.56,7332.58,-14.53 8460.06,7332.58,-14.53 8459.56,7332.58,-14.54 8459.06,7332.58,-14.54 8458.56,7332.58,-14.54 8458.06,7332.58,-14.54 8457.56,7332.59,-14.54 8457.06,7332.59,-14.54 8456.56,7332.59,-14.54 8456.06,7332.60,-14.54 8455.56,7332.60,-14.54 8455.07,7332.61,-14.55 8454.57,7332.62,-14.55 8454.07,7332.62,-14.55 8453.57,7332.63,-14.55 8453.07,7332.64,-14.55 8452.57,7332.65,-14.55 8452.07,7332.66,-14.55 8451.57,7332.67,-14.55 8451.07,7332.68,-14.55 8450.57,7332.69,-14.56 8450.07,7332.71,-14.56 8449.57,7332.72,-14.56 8449.07,7332.73,-14.56 8448.57,7332.75,-14.56 8448.07,7332.76,-14.56 8447.57,7332.78,-14.56 8447.07,7332.80,-14.56 8446.57,7332.81,-14.56 8446.07,7332.83,-14.57 8445.57,7332.85,-14.57 8445.07,7332.87,-14.57 8444.57,7332.89,-14.57"/>
    </edge>
    <edge id=":node-2_2" function="internal">
        <lane id=":node-2_2_0" index="0" disallow="pedestrian" speed="11.18" length="18.13" width="4.00" shape="8444.82,7326.84,-14.57 8445.31,7326.87,-14.57 8445.80,7326.89,-14.57 8446.29,7326.92,-14.57 8446.78,7326.95,-14.57 8447.27,7326.97,-14.57 8447.76,7327.00,-14.57 8448.25,7327.02,-14.57 8448.74,7327.04,-14.56 8449.23,7327.07,-14.56 8449.72,7327.09,-14.56 8450.21,7327.12,-14.56 8450.69,7327.14,-14.56 8451.18,7327.16,-14.56 8451.67,7327.18,-14.56 8452.16,7327.20,-14.56 8452.65,7327.23,-14.56 8453.14,7327.25,-14.56 8453.63,7327.27,-14.56 8454.12,7327.29,-14.56 8454.61,7327.30,-14.56 8455.10,7327.32,-14.56 8455.59,7327.34,-14.56 8456.08,7327.36,-14.56 8456.57,7327.38,-14.56 8457.06,7327.39,-14.56 8457.55,7327.41,-14.55 8458.04,7327.42,-14.55 8458.53,7327.44,-14.55 8459.02,7327.45,-14.55 8459.51,7327.47,-14.55 8460.00,7327.48,-14.55 8460.49,7327.49,-14.55 8460.98,7327.50,-14.55 8461.47,7327.51,-14.55 8461.96,7327.52,-14.55 8462.45,7327.53,-14.55 8462.94,7327.54,-14.55"/>
    </edge>
    <edge id=":node-2_3" function="internal">
        <lane id=":node-2_3_0" index="0" disallow="pedestrian" speed="8.44" length="7.14" width="4.00" shape="8444.82,7326.84,-14.57 8445.32,7326.87,-14.57 8445.82,7326.91,-14.56 8446.31,7326.95,-14.56 8446.80,7327.02,-14.56 8447.29,7327.11,-14.55 8447.77,7327.23,-14.55 8448.25,7327.38,-14.55 8448.71,7327.57,-14.54 8449.16,7327.78,-14.54 8449.59,7328.03,-14.54 8449.99,7328.32,-14.53 8450.38,7328.63,-14.53 8450.74,7328.98,-14.53 8451.06,7329.35,-14.52 8451.17,7329.50,-14.52"/>
    </edge>
    <edge id=":node-2_6" function="internal">
        <lane id=":node-2_6_0" index="0" disallow="pedestrian" speed="8.44" length="9.76" width="4.00" shape="8451.17,7329.50,-14.52 8451.36,7329.75,-14.52 8451.63,7330.17,-14.53 8451.87,7330.60,-14.54 8452.08,7331.05,-14.55 8452.26,7331.52,-14.56 8452.41,7331.99,-14.57 8452.53,7332.47,-14.58 8452.64,7332.96,-14.59 8452.72,7333.45,-14.60 8452.77,7333.94,-14.62 8452.82,7334.44,-14.63 8452.85,7334.93,-14.64 8452.86,7335.43,-14.65 8452.87,7335.93,-14.66 8452.87,7336.42,-14.67 8452.87,7336.92,-14.66 8452.86,7337.42,-14.65 8452.85,7337.92,-14.64 8452.84,7338.41,-14.64 8452.83,7338.91,-14.63"/>
    </edge>
    <edge id=":node-2_4" function="internal">
        <lane id=":node-2_4_0" index="0" disallow="pedestrian" speed="6.30" length="9.52" width="4.00" shape="8449.90,7338.90,-14.64 8449.91,7338.42,-14.65 8449.92,7337.95,-14.66 8449.91,7337.47,-14.67 8449.87,7337.00,-14.69 8449.81,7336.52,-14.70 8449.71,7336.06,-14.68 8449.57,7335.60,-14.66 8449.39,7335.16,-14.64 8449.16,7334.75,-14.63 8448.89,7334.36,-14.61 8448.57,7334.01,-14.59 8448.21,7333.70,-14.59 8447.81,7333.44,-14.58 8447.38,7333.23,-14.58 8446.93,7333.07,-14.58 8446.47,7332.96,-14.58 8446.00,7332.90,-14.58 8445.52,7332.87,-14.57 8445.05,7332.87,-14.57 8444.57,7332.89,-14.57"/>
    </edge>
    <edge id=":node-2_5" function="internal">